functions/OneTimeScripts/validationAgainstOpenDSS_MATLAB/ieee123_1ph_created/results/powers17.csv
Element, Terminal, P(kW), Q(kvar),  P_Normal, Q_Normal, P_Emergency, Q_Emergency
"Line.L115"             ,   1,       590.0,       332.4,         0.0,         0.0,         0.0,         0.0
"Line.L115"             ,   2,      -588.2,      -328.7
"Line.L1"               ,   1,         5.7,         2.8,         0.0,         0.0,         0.0,         0.0
"Line.L1"               ,   2,        -5.7,        -2.8
"Line.L2"               ,   1,        28.5,        14.3,         0.0,         0.0,         0.0,         0.0
"Line.L2"               ,   2,       -28.5,       -14.3
"Line.L3"               ,   1,       542.6,       305.9,         0.0,         0.0,         0.0,         0.0
"Line.L3"               ,   2,      -541.4,      -303.5
"Line.L4"               ,   1,        11.4,         5.7,         0.0,         0.0,         0.0,         0.0
"Line.L4"               ,   2,       -11.4,        -5.7
"Line.L5"               ,   1,        17.1,         8.6,         0.0,         0.0,         0.0,         0.0
"Line.L5"               ,   2,       -17.1,        -8.6
"Line.L6"               ,   1,        11.4,         5.7,         0.0,         0.0,         0.0,         0.0
"Line.L6"               ,   2,       -11.4,        -5.7
"Line.L7"               ,   1,       535.7,       300.6,         0.0,         0.0,         0.0,         0.0
"Line.L7"               ,   2,      -534.9,      -299.1
"Line.L8"               ,   1,         5.7,         2.8,         0.0,         0.0,         0.0,         0.0
"Line.L8"               ,   2,        -5.7,        -2.9
"Line.L9"               ,   1,         7.2,        14.3,         0.0,         0.0,         0.0,         0.0
"Line.L9"               ,   2,        -7.2,       -14.3
"Line.L10"              ,   1,       522.1,       282.0,         0.0,         0.0,         0.0,         0.0
"Line.L10"              ,   2,      -521.0,      -279.8
"Line.L11"              ,   1,        17.1,         8.6,         0.0,         0.0,         0.0,         0.0
"Line.L11"              ,   2,       -17.1,        -8.6
"Line.L12"              ,   1,        28.5,        14.3,         0.0,         0.0,         0.0,         0.0
"Line.L12"              ,   2,       -28.5,       -14.3
"Line.L13"              ,   1,       185.4,       187.1,         0.0,         0.0,         0.0,         0.0
"Line.L13"              ,   2,      -184.8,      -185.9
"Line.L14"              ,   1,        11.4,         5.7,         0.0,         0.0,         0.0,         0.0
"Line.L14"              ,   2,       -11.4,        -5.7
"Line.L15"              ,   1,         5.7,         2.8,         0.0,         0.0,         0.0,         0.0
"Line.L15"              ,   2,        -5.7,        -2.9
"Line.L16"              ,   1,        11.4,         5.7,         0.0,         0.0,         0.0,         0.0
"Line.L16"              ,   2,       -11.4,        -5.7
"Line.L17"              ,   1,         5.7,         2.8,         0.0,         0.0,         0.0,         0.0
"Line.L17"              ,   2,        -5.7,        -2.9
"Line.L18"              ,   1,        22.8,        11.4,         0.0,         0.0,         0.0,         0.0
"Line.L18"              ,   2,       -22.8,       -11.4
"Line.L19"              ,   1,        58.5,        40.0,         0.0,         0.0,         0.0,         0.0
"Line.L19"              ,   2,       -58.5,       -39.9
"Line.L20"              ,   1,        11.4,         5.7,         0.0,         0.0,         0.0,         0.0
"Line.L20"              ,   2,       -11.4,        -5.7
"Line.L21"              ,   1,        11.4,         5.7,         0.0,         0.0,         0.0,         0.0
"Line.L21"              ,   2,       -11.4,        -5.7
"Line.L22"              ,   1,        47.1,        34.2,         0.0,         0.0,         0.0,         0.0
"Line.L22"              ,   2,       -47.1,       -34.2
"Line.L23"              ,   1,        11.4,         5.7,         0.0,         0.0,         0.0,         0.0
"Line.L23"              ,   2,       -11.4,        -5.7
"Line.L24"              ,   1,        35.7,        28.5,         0.0,         0.0,         0.0,         0.0
"Line.L24"              ,   2,       -35.7,       -28.5
"Line.L25"              ,   1,        22.8,        11.4,         0.0,         0.0,         0.0,         0.0
"Line.L25"              ,   2,       -22.8,       -11.4
"Line.L26"              ,   1,        12.9,        17.1,         0.0,         0.0,         0.0,         0.0
"Line.L26"              ,   2,       -12.9,       -17.1
"Line.L27"              ,   1,        11.4,         5.7,         0.0,         0.0,         0.0,         0.0
"Line.L27"              ,   2,       -11.4,        -5.7
"Line.L28"              ,   1,        11.4,         5.7,         0.0,         0.0,         0.0,         0.0
"Line.L28"              ,   2,       -11.4,        -5.7
"Line.L29"              ,   1,        11.4,         5.7,         0.0,         0.0,         0.0,         0.0
"Line.L29"              ,   2,       -11.4,        -5.7
"Line.L30"              ,   1,        22.8,        11.4,         0.0,         0.0,         0.0,         0.0
"Line.L30"              ,   2,       -22.8,       -11.4
"Line.L31"              ,   1,        11.4,         5.7,         0.0,         0.0,         0.0,         0.0
"Line.L31"              ,   2,       -11.4,        -5.7
"Line.L32"              ,   1,         0.0,        -0.0,         0.0,         0.0,         0.0,         0.0
"Line.L32"              ,   2,        -0.0,        -0.0
"Line.L33"              ,   1,         5.7,         2.8,         0.0,         0.0,         0.0,         0.0
"Line.L33"              ,   2,        -5.7,        -2.9
"Line.L34"              ,   1,        17.1,         8.6,         0.0,         0.0,         0.0,         0.0
"Line.L34"              ,   2,       -17.1,        -8.6
"Line.L35"              ,   1,        22.8,        11.4,         0.0,         0.0,         0.0,         0.0
"Line.L35"              ,   2,       -22.8,       -11.4
"Line.L36"              ,   1,        69.2,       117.2,         0.0,         0.0,         0.0,         0.0
"Line.L36"              ,   2,       -69.1,      -117.1
"Line.L37"              ,   1,        11.4,         5.7,         0.0,         0.0,         0.0,         0.0
"Line.L37"              ,   2,       -11.4,        -5.7
"Line.L38"              ,   1,        11.4,         5.7,         0.0,         0.0,         0.0,         0.0
"Line.L38"              ,   2,       -11.4,        -5.7
"Line.L39"              ,   1,         5.7,         2.8,         0.0,         0.0,         0.0,         0.0
"Line.L39"              ,   2,        -5.7,        -2.9
"Line.L40"              ,   1,         5.7,         2.8,         0.0,         0.0,         0.0,         0.0
"Line.L40"              ,   2,        -5.7,        -2.9
"Line.L41"              ,   1,        63.4,       114.2,         0.0,         0.0,         0.0,         0.0
"Line.L41"              ,   2,       -63.4,      -114.1
"Line.L42"              ,   1,        11.4,         5.7,         0.0,         0.0,         0.0,         0.0
"Line.L42"              ,   2,       -11.4,        -5.7
"Line.L43"              ,   1,        46.3,       105.6,         0.0,         0.0,         0.0,         0.0
"Line.L43"              ,   2,       -46.2,      -105.5
"Line.L44"              ,   1,        11.4,         5.7,         0.0,         0.0,         0.0,         0.0
"Line.L44"              ,   2,       -11.4,        -5.7
"Line.L45"              ,   1,        34.8,        99.8,         0.0,         0.0,         0.0,         0.0
"Line.L45"              ,   2,       -34.8,       -99.8
"Line.L46"              ,   1,         5.7,         2.8,         0.0,         0.0,         0.0,         0.0
"Line.L46"              ,   2,        -5.7,        -2.9
"Line.L47"              ,   1,       -52.1,        42.8,         0.0,         0.0,         0.0,         0.0
"Line.L47"              ,   2,        52.2,       -42.8
"Line.L48"              ,   1,        57.0,        35.6,         0.0,         0.0,         0.0,         0.0
"Line.L48"              ,   2,       -57.0,       -35.6
"Line.L49"              ,   1,        17.1,         8.5,         0.0,         0.0,         0.0,         0.0
"Line.L49"              ,   2,       -17.1,        -8.5
"Line.L50"              ,   1,         5.7,         2.8,         0.0,         0.0,         0.0,         0.0
"Line.L50"              ,   2,        -5.7,        -2.8
"Line.L51"              ,   1,         0.0,        -0.0,         0.0,         0.0,         0.0,         0.0
"Line.L51"              ,   2,         0.0,         0.0
"Line.L52"              ,   1,       295.3,        71.9,         0.0,         0.0,         0.0,         0.0
"Line.L52"              ,   2,      -295.1,       -71.5
"Line.L53"              ,   1,       283.7,        65.8,         0.0,         0.0,         0.0,         0.0
"Line.L53"              ,   2,      -283.6,       -65.6
"Line.L54"              ,   1,        11.4,         5.7,         0.0,         0.0,         0.0,         0.0
"Line.L54"              ,   2,       -11.4,        -5.7
"Line.L55"              ,   1,       272.2,        59.9,         0.0,         0.0,         0.0,         0.0
"Line.L55"              ,   2,      -271.9,       -59.3
"Line.L56"              ,   1,         5.7,         2.8,         0.0,         0.0,         0.0,         0.0
"Line.L56"              ,   2,        -5.7,        -2.9
"Line.L57"              ,   1,         0.7,         5.7,         0.0,         0.0,         0.0,         0.0
"Line.L57"              ,   2,        -0.7,        -5.7
"Line.L58"              ,   1,       271.2,        53.6,         0.0,         0.0,         0.0,         0.0
"Line.L58"              ,   2,      -270.6,       -52.4
"Line.L59"              ,   1,         5.7,         2.8,         0.0,         0.0,         0.0,         0.0
"Line.L59"              ,   2,        -5.7,        -2.9
"Line.L60"              ,   1,         0.0,        -0.0,         0.0,         0.0,         0.0,         0.0
"Line.L60"              ,   2,        -0.0,         0.0
"Line.L61"              ,   1,        30.9,        59.8,         0.0,         0.0,         0.0,         0.0
"Line.L61"              ,   2,       -30.9,       -59.8
"Line.L62"              ,   1,        19.5,        54.1,         0.0,         0.0,         0.0,         0.0
"Line.L62"              ,   2,       -19.4,       -54.1
"Line.L63"              ,   1,         8.0,        48.4,         0.0,         0.0,         0.0,         0.0
"Line.L63"              ,   2,        -8.0,       -48.4
"Line.L64"              ,   1,       -13.4,        38.4,         0.0,         0.0,         0.0,         0.0
"Line.L64"              ,   2,        13.4,       -38.5
"Line.L65"              ,   1,        21.4,        10.0,         0.0,         0.0,         0.0,         0.0
"Line.L65"              ,   2,       -21.4,       -10.0
"Line.L66"              ,   1,        34.2,        17.1,         0.0,         0.0,         0.0,         0.0
"Line.L66"              ,   2,       -34.2,       -17.1
"Line.L67"              ,   1,        95.2,       -90.7,         0.0,         0.0,         0.0,         0.0
"Line.L67"              ,   2,       -95.2,        90.9
"Line.L68"              ,   1,       104.3,        63.0,         0.0,         0.0,         0.0,         0.0
"Line.L68"              ,   2,      -104.2,       -62.9
"Line.L69"              ,   1,        28.5,        14.3,         0.0,         0.0,         0.0,         0.0
"Line.L69"              ,   2,       -28.5,       -14.3
"Line.L70"              ,   1,        17.1,         8.6,         0.0,         0.0,         0.0,         0.0
"Line.L70"              ,   2,       -17.1,        -8.6
"Line.L71"              ,   1,        11.4,         5.7,         0.0,         0.0,         0.0,         0.0
"Line.L71"              ,   2,       -11.4,        -5.7
"Line.L72"              ,   1,        34.2,        17.1,         0.0,         0.0,         0.0,         0.0
"Line.L72"              ,   2,       -34.2,       -17.1
"Line.L73"              ,   1,        61.0,      -108.0,         0.0,         0.0,         0.0,         0.0
"Line.L73"              ,   2,       -60.9,       108.1
"Line.L74"              ,   1,        22.8,        11.4,         0.0,         0.0,         0.0,         0.0
"Line.L74"              ,   2,       -22.8,       -11.4
"Line.L75"              ,   1,        11.4,         5.7,         0.0,         0.0,         0.0,         0.0
"Line.L75"              ,   2,       -11.4,        -5.7
"Line.L76"              ,   1,        68.9,      -150.6,         0.0,         0.0,         0.0,         0.0
"Line.L76"              ,   2,       -68.8,       150.8
"Line.L77"              ,   1,        52.8,        -8.8,         0.0,         0.0,         0.0,         0.0
"Line.L77"              ,   2,       -52.8,         8.8
"Line.L78"              ,   1,        57.4,      -156.5,         0.0,         0.0,         0.0,         0.0
"Line.L78"              ,   2,       -57.4,       156.6
"Line.L79"              ,   1,        11.4,         5.7,         0.0,         0.0,         0.0,         0.0
"Line.L79"              ,   2,       -11.4,        -5.7
"Line.L80"              ,   1,        46.0,      -162.3,         0.0,         0.0,         0.0,         0.0
"Line.L80"              ,   2,       -45.8,       162.6
"Line.L81"              ,   1,        34.4,      -168.3,         0.0,         0.0,         0.0,         0.0
"Line.L81"              ,   2,       -34.4,       168.4
"Line.L82"              ,   1,        17.3,      -176.9,         0.0,         0.0,         0.0,         0.0
"Line.L82"              ,   2,       -17.2,       177.1
"Line.L83"              ,   1,        17.1,         8.6,         0.0,         0.0,         0.0,         0.0
"Line.L83"              ,   2,       -17.1,        -8.6
"Line.L84"              ,   1,         5.8,      -182.8,         0.0,         0.0,         0.0,         0.0
"Line.L84"              ,   2,        -5.7,       183.0
"Line.L85"              ,   1,        11.4,         5.7,         0.0,         0.0,         0.0,         0.0
"Line.L85"              ,   2,       -11.4,        -5.7
"Line.L86"              ,   1,        47.1,       -11.7,         0.0,         0.0,         0.0,         0.0
"Line.L86"              ,   2,       -47.1,        11.7
"Line.L87"              ,   1,        11.4,        -9.6,         0.0,         0.0,         0.0,         0.0
"Line.L87"              ,   2,       -11.4,         9.6
"Line.L88"              ,   1,        45.6,        -7.8,         0.0,         0.0,         0.0,         0.0
"Line.L88"              ,   2,       -45.6,         7.8
"Line.L89"              ,   1,        11.4,        -9.6,         0.0,         0.0,         0.0,         0.0
"Line.L89"              ,   2,       -11.4,         9.6
"Line.L90"              ,   1,        34.2,         1.8,         0.0,         0.0,         0.0,         0.0
"Line.L90"              ,   2,       -34.2,        -1.8
"Line.L91"              ,   1,        11.4,        -9.6,         0.0,         0.0,         0.0,         0.0
"Line.L91"              ,   2,       -11.4,         9.6
"Line.L92"              ,   1,        22.8,        11.4,         0.0,         0.0,         0.0,         0.0
"Line.L92"              ,   2,       -22.8,       -11.4
"Line.L93"              ,   1,        11.4,         5.7,         0.0,         0.0,         0.0,         0.0
"Line.L93"              ,   2,       -11.4,        -5.7
"Line.L94"              ,   1,        11.4,         5.7,         0.0,         0.0,         0.0,         0.0
"Line.L94"              ,   2,       -11.4,        -5.7
"Line.L95"              ,   1,         5.7,         2.8,         0.0,         0.0,         0.0,         0.0
"Line.L95"              ,   2,        -5.7,        -2.9
"Line.L96"              ,   1,        12.9,        17.1,         0.0,         0.0,         0.0,         0.0
"Line.L96"              ,   2,       -12.9,       -17.1
"Line.L97"              ,   1,         1.5,        11.4,         0.0,         0.0,         0.0,         0.0
"Line.L97"              ,   2,        -1.5,       -11.4
"Line.L98"              ,   1,        -9.9,         5.7,         0.0,         0.0,         0.0,         0.0
"Line.L98"              ,   2,         9.9,        -5.7
"Line.L99"              ,   1,         0.0,        -0.0,         0.0,         0.0,         0.0,         0.0
"Line.L99"              ,   2,         0.0,        -0.0
"Line.L118"             ,   1,        91.4,        45.8,         0.0,         0.0,         0.0,         0.0
"Line.L118"             ,   2,       -91.3,       -45.7
"Line.L100"             ,   1,        28.5,        14.3,         0.0,         0.0,         0.0,         0.0
"Line.L100"             ,   2,       -28.5,       -14.3
"Line.L101"             ,   1,        62.8,        31.5,         0.0,         0.0,         0.0,         0.0
"Line.L101"             ,   2,       -62.8,       -31.4
"Line.L102"             ,   1,        22.8,        11.4,         0.0,         0.0,         0.0,         0.0
"Line.L102"             ,   2,       -22.8,       -11.4
"Line.L103"             ,   1,        11.4,         5.7,         0.0,         0.0,         0.0,         0.0
"Line.L103"             ,   2,       -11.4,        -5.7
"Line.L104"             ,   1,        22.8,        11.4,         0.0,         0.0,         0.0,         0.0
"Line.L104"             ,   2,       -22.8,       -11.4
"Line.L105"             ,   1,        40.0,        20.0,         0.0,         0.0,         0.0,         0.0
"Line.L105"             ,   2,       -40.0,       -20.0
"Line.L106"             ,   1,        11.4,         5.7,         0.0,         0.0,         0.0,         0.0
"Line.L106"             ,   2,       -11.4,        -5.7
"Line.L107"             ,   1,        40.0,        20.0,         0.0,         0.0,         0.0,         0.0
"Line.L107"             ,   2,       -39.9,       -20.0
"Line.L108"             ,   1,         0.0,        -0.0,         0.0,         0.0,         0.0,         0.0
"Line.L108"             ,   2,         0.0,         0.0
"Line.L109"             ,   1,        28.5,        14.3,         0.0,         0.0,         0.0,         0.0
"Line.L109"             ,   2,       -28.5,       -14.3
"Line.L110"             ,   1,         5.7,         2.8,         0.0,         0.0,         0.0,         0.0
"Line.L110"             ,   2,        -5.7,        -2.9
"Line.L111"             ,   1,        22.8,        11.4,         0.0,         0.0,         0.0,         0.0
"Line.L111"             ,   2,       -22.8,       -11.4
"Line.L112"             ,   1,        17.1,         8.6,         0.0,         0.0,         0.0,         0.0
"Line.L112"             ,   2,       -17.1,        -8.5
"Line.L113"             ,   1,         5.7,         2.8,         0.0,         0.0,         0.0,         0.0
"Line.L113"             ,   2,        -5.7,        -2.9
"Line.L114"             ,   1,       103.5,       134.5,         0.0,         0.0,         0.0,         0.0
"Line.L114"             ,   2,      -103.4,      -134.3
"Line.L116"             ,   1,       307.1,        78.4,         0.0,         0.0,         0.0,         0.0
"Line.L116"             ,   2,      -306.7,       -77.6
"Line.L117"             ,   1,       234.0,       -10.2,         0.0,         0.0,         0.0,         0.0
"Line.L117"             ,   2,      -233.8,        10.7
"Line.SW1"              ,   1,       590.0,       332.4,         0.0,         0.0,         0.0,         0.0
"Line.SW1"              ,   2,      -590.0,      -332.4
"Line.SW2"              ,   1,       307.1,        78.4,         0.0,         0.0,         0.0,         0.0
"Line.SW2"              ,   2,      -307.1,       -78.4
"Line.SW3"              ,   1,       103.5,       134.5,         0.0,         0.0,         0.0,         0.0
"Line.SW3"              ,   2,      -103.5,      -134.5
"Line.SW4"              ,   1,       234.0,       -10.2,         0.0,         0.0,         0.0,         0.0
"Line.SW4"              ,   2,      -234.0,        10.2
"Line.SW5"              ,   1,        91.4,        45.8,         0.0,         0.0,         0.0,         0.0
"Line.SW5"              ,   2,       -91.4,       -45.8
"Line.XFM1"             ,   1,         0.0,         0.0,         0.0,         0.0,         0.0,         0.0
"Line.XFM1"             ,   2,         0.0,         0.0
"Capacitor.C83"         ,   1,        -0.0,      -185.9,         0.0,         0.0,         0.0,         0.0
"Capacitor.C83"         ,   2,         0.0,         0.0
"Capacitor.C88"         ,   1,         0.0,       -15.3,         0.0,         0.0,         0.0,         0.0
"Capacitor.C88"         ,   2,         0.0,         0.0
"Capacitor.C90"         ,   1,        -0.0,       -15.3,         0.0,         0.0,         0.0,         0.0
"Capacitor.C90"         ,   2,         0.0,         0.0
"Capacitor.C92"         ,   1,         0.0,       -15.3,         0.0,         0.0,         0.0,         0.0
"Capacitor.C92"         ,   2,         0.0,         0.0
"Transformer.REG1A"     ,   1,       590.0,       332.4,         0.0,         0.0,         0.0,         0.0
"Transformer.REG1A"     ,   2,      -590.0,      -332.4
"Transformer.REG2A"     ,   1,        17.1,         8.6,         0.0,         0.0,         0.0,         0.0
"Transformer.REG2A"     ,   2,       -17.1,        -8.6
"Transformer.REG3A"     ,   1,        22.8,        11.4,         0.0,         0.0,         0.0,         0.0
"Transformer.REG3A"     ,   2,       -22.8,       -11.4
"Transformer.REG4A"     ,   1,       234.0,       -10.2,         0.0,         0.0,         0.0,         0.0
"Transformer.REG4A"     ,   2,      -234.0,        10.2
"Load.S1"               ,   1,        11.4,         5.7
"Load.S2"               ,   1,         5.7,         2.8
"Load.S4"               ,   1,        11.4,         5.7
"Load.S5"               ,   1,         5.7,         2.8
"Load.S6"               ,   1,        11.4,         5.7
"Load.S7"               ,   1,         5.7,         2.8
"Load.S9"               ,   1,        11.4,         5.7
"Load.S10"              ,   1,         5.7,         2.9
"Load.S11"              ,   1,        11.4,         5.7
"Load.S12"              ,   1,         5.7,         2.9
"Load.S16"              ,   1,        11.4,         5.7
"Load.S17"              ,   1,         5.7,         2.9
"Load.S19"              ,   1,        11.4,         5.7
"Load.S20"              ,   1,        11.4,         5.7
"Load.S22"              ,   1,        11.4,         5.7
"Load.S24"              ,   1,        11.4,         5.7
"Load.S28"              ,   1,        11.4,         5.7
"Load.S29"              ,   1,        11.4,         5.7
"Load.S30"              ,   1,        11.4,         5.7
"Load.S31"              ,   1,         5.7,         2.9
"Load.S32"              ,   1,         5.7,         2.9
"Load.S33"              ,   1,        11.4,         5.7
"Load.S34"              ,   1,        11.4,         5.7
"Load.S35"              ,   1,        11.4,         5.7
"Load.S37"              ,   1,        11.4,         5.7
"Load.S38"              ,   1,         5.7,         2.9
"Load.S39"              ,   1,         5.7,         2.9
"Load.S41"              ,   1,         5.7,         2.9
"Load.S42"              ,   1,         5.7,         2.9
"Load.S43"              ,   1,        11.4,         5.7
"Load.S45"              ,   1,         5.7,         2.9
"Load.S46"              ,   1,         5.7,         2.9
"Load.S47"              ,   1,        29.9,        21.4
"Load.S48"              ,   1,        59.9,        42.8
"Load.S49"              ,   1,        39.9,        27.1
"Load.S50"              ,   1,        11.4,         5.7
"Load.S51"              ,   1,         5.7,         2.9
"Load.S52"              ,   1,        11.4,         5.7
"Load.S53"              ,   1,        11.4,         5.7
"Load.S55"              ,   1,         5.7,         2.9
"Load.S56"              ,   1,         5.7,         2.9
"Load.S58"              ,   1,         5.7,         2.9
"Load.S59"              ,   1,         5.7,         2.9
"Load.S60"              ,   1,         5.7,         2.9
"Load.S62"              ,   1,        11.4,         5.7
"Load.S63"              ,   1,        11.4,         5.7
"Load.S64"              ,   1,        21.4,        10.0
"Load.S65"              ,   1,        39.9,        28.5
"Load.S66"              ,   1,        21.4,        10.0
"Load.S68"              ,   1,         5.7,         2.9
"Load.S69"              ,   1,        11.4,         5.7
"Load.S70"              ,   1,         5.7,         2.9
"Load.S71"              ,   1,        11.4,         5.7
"Load.S73"              ,   1,        11.4,         5.7
"Load.S74"              ,   1,        11.4,         5.7
"Load.S75"              ,   1,        11.4,         5.7
"Load.S76"              ,   1,        69.8,        51.3
"Load.S77"              ,   1,        11.4,         5.7
"Load.S79"              ,   1,        11.4,         5.7
"Load.S80"              ,   1,        11.4,         5.7
"Load.S82"              ,   1,        11.4,         5.7
"Load.S83"              ,   1,         5.7,         2.9
"Load.S84"              ,   1,         5.7,         2.9
"Load.S85"              ,   1,        11.4,         5.7
"Load.S86"              ,   1,         5.7,         2.9
"Load.S87"              ,   1,        11.4,         5.7
"Load.S88"              ,   1,        11.4,         5.7
"Load.S90"              ,   1,        11.4,         5.7
"Load.S92"              ,   1,        11.4,         5.7
"Load.S94"              ,   1,        11.4,         5.7
"Load.S95"              ,   1,         5.7,         2.9
"Load.S96"              ,   1,         5.7,         2.9
"Load.S98"              ,   1,        11.4,         5.7
"Load.S99"              ,   1,        11.4,         5.7
"Load.S100"             ,   1,        11.4,         5.7
"Load.S102"             ,   1,         5.7,         2.9
"Load.S103"             ,   1,        11.4,         5.7
"Load.S104"             ,   1,        11.4,         5.7
"Load.S106"             ,   1,        11.4,         5.7
"Load.S107"             ,   1,        11.4,         5.7
"Load.S109"             ,   1,        11.4,         5.7
"Load.S111"             ,   1,         5.7,         2.9
"Load.S112"             ,   1,         5.7,         2.9
"Load.S113"             ,   1,        11.4,         5.7
"Load.S114"             ,   1,         5.7,         2.9
"PVSystem.9"            ,   1,       -13.3,        -0.0
"PVSystem.28"           ,   1,       -13.3,        -0.0
"PVSystem.48"           ,   1,       -70.0,        -0.0
"PVSystem.58"           ,   1,        -6.7,        -0.0
"PVSystem.65"           ,   1,       -46.7,        -0.0
"PVSystem.76"           ,   1,       -81.7,        -0.0
"PVSystem.87"           ,   1,       -13.3,        -0.0
"PVSystem.100"          ,   1,       -13.3,        -0.0
"Storage.BATTERY9"      ,   1,        -8.0,        -0.0
"Storage.BATTERY28"     ,   1,        -8.0,        -0.0
"Storage.BATTERY48"     ,   1,       -42.0,        -0.0
"Storage.BATTERY58"     ,   1,        -4.0,        -0.0
"Storage.BATTERY65"     ,   1,       -28.0,        -0.0
"Storage.BATTERY76"     ,   1,       -49.0,        -0.0
"Storage.BATTERY87"     ,   1,        -8.0,        -0.0
"Storage.BATTERY100"    ,   1,        -8.0,        -0.0
